13
Energy = -323.6192065
C    -0.1234563    0.9298040   -1.1264184 
C    -0.1993788   -0.2728574   -0.1920985 
H     0.3197709    1.7857820   -0.6109769 
H    -1.1206696    1.2101324   -1.4690372 
H     0.4995204    0.7015236   -1.9892474 
C     1.2097596   -0.7920178    0.1590580 
N    -0.9652218   -0.0471886    1.0441896 
H    -0.6736074   -1.1055927   -0.7200688 
H    -0.9168113    0.9239111    1.3316150 
H    -1.9411716   -0.2872529    0.9346508 
O     2.0997344   -0.8649331   -0.6437373 
O     1.3403512   -1.1870580    1.4310761 
H     0.4711804   -0.9942527    1.8509950 
13
Energy = -323.6087702
C    -1.3542111    0.1540073   -0.1973765 
C     0.0506383   -0.3989456   -0.3978347 
H    -1.4991117    0.5435291    0.8171490 
H    -2.0798410   -0.6477481   -0.3283941 
H    -1.5785619    0.9499413   -0.9093671 
C     1.1676535    0.6537506   -0.3853279 
N     0.3214214   -1.4460390    0.5918504 
H     0.1152285   -0.8632944   -1.3827133 
H     1.2299057   -1.8639717    0.4239016 
H     0.3310653   -1.0656016    1.5326847 
O     2.1925256    0.5200395   -0.9925288 
O     0.9960540    1.7319889    0.4245822 
H     0.1072335    1.7323437    0.8033745 
13
Energy = -323.6192803
C    -1.0822657    0.7984444    0.4493659 
C    -0.2170925   -0.1493950   -0.3789721 
H    -2.0472686    0.3378251    0.6706949 
H    -1.2554465    1.7219849   -0.1000401 
H    -0.5876252    1.0433714    1.3919706 
C     1.0717522    0.5866807   -0.7834460 
N     0.1195843   -1.3533039    0.3937783 
H    -0.7395416   -0.3830265   -1.3105927 
H    -0.5765309   -1.5560196    1.0992270 
H     0.2146686   -2.1698171   -0.1972371 
O     1.0914160    1.4514905   -1.6158275 
O     2.1575064    0.2016872   -0.1005488 
H     1.8508437   -0.5299221    0.4816276 
13
Energy = -323.6192063
C    -1.3272475    0.2148671   -0.5836671 
C     0.1117820   -0.2078598   -0.3089052 
H    -1.3637846    0.9232562   -1.4092363 
H    -1.7557192    0.7032616    0.2953732 
H    -1.9395332   -0.6539092   -0.8300576 
C     1.0272353    1.0210648   -0.1354693 
N     0.2807016   -1.1156219    0.8370303 
H     0.5074990   -0.7210179   -1.1904857 
H     0.2291036   -2.0870826    0.5618860 
H    -0.4337495   -0.9552994    1.5383448 
O     0.9396777    2.0045237   -0.8188262 
O     1.9511029    0.8777971    0.8221888 
H     1.7729319   -0.0039797    1.2218243 
13
Energy = -323.6098435
C    -1.2260596    0.4508959   -0.2989664 
C     0.0335196   -0.3918228   -0.0697042 
H    -1.3610466    1.1655156    0.5131022 
H    -2.0969663   -0.2047651   -0.3179224 
H    -1.2155537    0.9850982   -1.2543504 
C     1.3073561    0.4430196    0.0822658 
N    -0.1236028   -1.2089604    1.1217701 
H     0.2132191   -0.9912980   -0.9792826 
H    -0.6051964   -2.0741844    0.9177407 
H     0.7841550   -1.4172439    1.5210194 
O     2.1692548    0.1989065    0.8778222 
O     1.4546864    1.4732699   -0.7823101 
H     0.6662344    1.5715689   -1.3311843 
13
Energy = -323.6194881
C    -0.7064217    0.4410586   -1.1854462 
C     0.0109421   -0.4776279   -0.1907343 
H     0.0002794    1.0799737   -1.7141383 
H    -1.4243602    1.0773289   -0.6623959 
H    -1.2501103   -0.1686856   -1.9057949 
C     0.8134951    0.3783397    0.7859140 
N    -0.9449669   -1.3544757    0.4609639 
H     0.7266047   -1.0930785   -0.7417693 
H    -0.4704423   -1.9980504    1.0842934 
H    -1.5688256   -0.8061316    1.0444777 
O     0.5015767    0.6169401    1.9235855 
O     1.9374001    0.8748306    0.2178071 
H     2.3748289    1.4295780    0.8832374 
13
Energy = -323.6192162
C    -1.2249844    0.1529548   -0.7902883 
C     0.0949488   -0.3234429   -0.1937080 
H    -1.0791138    0.4886037   -1.8153610 
H    -1.6214065    0.9943719   -0.2160935 
H    -1.9613716   -0.6519876   -0.7785167 
C     1.1970881    0.7417619   -0.3644857 
N     0.0215904   -0.7369913    1.2166989 
H     0.4553056   -1.1836492   -0.7657845 
H    -0.1795149   -1.7231050    1.3128338 
H    -0.7011233   -0.2251178    1.7102816 
O     1.3310914    1.3907961   -1.3658059 
O     2.0123682    0.8521776    0.6911004 
H     1.6551220    0.2236278    1.3591290 
13
Energy = -323.6175482
C    -1.3395424    0.5905238   -0.2569354 
C    -0.2647516   -0.4966047   -0.1893153 
H    -2.3088494    0.1484925   -0.0284840 
H    -1.3771528    1.0427624   -1.2485110 
H    -1.1355572    1.3761326    0.4736744 
C     1.0697821    0.1012910   -0.6241762 
N    -0.2693235   -1.1215099    1.1268337 
H    -0.4898747   -1.2628287   -0.9326738 
H     0.4105509   -1.8712165    1.1779380 
H    -0.0251798   -0.4453669    1.8417853 
O     1.5368674    0.0250859   -1.7307947 
O     1.6882960    0.7710554    0.3801148 
H     2.5047349    1.1421830    0.0105443 
13
Energy = -323.6058011
C    -1.2200895    0.9016116    0.2161201 
C    -0.1567959   -0.1083434   -0.1768597 
H    -0.9910872    1.3207279    1.1944083 
H    -2.1981459    0.4172791    0.2559389 
H    -1.2682488    1.7150052   -0.5074287 
C     1.2284559    0.5435606   -0.2334729 
N    -0.1004598   -1.1846962    0.8206286 
H    -0.3805452   -0.4781467   -1.1932541 
H    -1.0004847   -1.6432075    0.8959532 
H     0.5905130   -1.8910867    0.5991750 
O     1.5071818    1.6138697    0.2158290 
O     2.1886820   -0.2100152   -0.8411935 
H     1.8010243   -0.9965582   -1.2458441 
13
Energy = -323.6118058
C    -1.1550948    0.4189030   -0.6059404 
C    -0.0393638   -0.4290370    0.0158206 
H    -0.8679700    0.8333228   -1.5736440 
H    -1.4027891    1.2523062    0.0547984 
H    -2.0448762   -0.1955859   -0.7353390 
C     1.2276526    0.4284154    0.1593835 
N    -0.4949781   -0.9998234    1.2685795 
H     0.1921017   -1.2579124   -0.6635280 
H     0.2274556   -1.5855092    1.6728111 
H    -0.6542177   -0.2543180    1.9392910 
O     1.6137872    0.8879003    1.1951751 
O     1.9070233    0.6773282   -0.9911677 
H     1.4912693    0.2240101   -1.7362400 
13
Energy = -323.6175558
C    -1.3075770    0.4062509   -0.1063463 
C    -0.0391387   -0.4550448   -0.2559498 
H    -2.1896911   -0.2196778   -0.2529423 
H    -1.3345871    1.2105694   -0.8434771 
H    -1.3552263    0.8406461    0.8942100 
C     1.1683768    0.4389485   -0.0580630 
N     0.0593060   -1.5711054    0.6726273 
H    -0.0002911   -0.8349109   -1.2803360 
H     0.3969835   -1.2431310    1.5708629 
H    -0.8434264   -2.0085781    0.8074662 
O     1.7795810    0.5586772    0.9717640 
O     1.4612243    1.1468825   -1.1703004 
H     2.2044661    1.7304734   -0.9495154 
13
Energy = -323.6195144
C    -1.2366086    0.6574035   -0.3698410 
C    -0.1784365   -0.4381423   -0.2023557 
H    -0.9597311    1.3571180   -1.1577388 
H    -1.3547630    1.2147900    0.5625042 
H    -2.1918608    0.1959161   -0.6165374 
C     1.1700496    0.2140719    0.0923333 
N    -0.5954702   -1.3867095    0.8143208 
H    -0.0771017   -0.9696981   -1.1519891 
H     0.0793724   -2.1387048    0.8979768 
H    -0.6195633   -0.9285317    1.7197794 
O     1.7025868    0.2589841    1.1706821 
O     1.7142663    0.7723364   -1.0142929 
H     2.5472599    1.1911663   -0.7448417 
13
Energy = -323.6100737
C    -1.2006171    0.4839871    0.1987844 
C    -0.0051705   -0.3943176   -0.2145985 
H    -1.0459197    0.8777016    1.2046046 
H    -2.1127664   -0.1154278    0.1956910 
H    -1.3503125    1.3242518   -0.4835029 
C     1.2553896    0.4667551   -0.1961882 
N     0.2146928   -1.5524487    0.6328864 
H    -0.1689045   -0.7354238   -1.2457559 
H     0.8301990   -1.2989592    1.3983639 
H    -0.6551508   -1.9013403    1.0140959 
O     2.0242212    0.5033200    0.7213333 
O     1.4407408    1.2629060   -1.2757436 
H     0.7735981    1.0789958   -1.9499704 
13
Energy = -323.6162425
C    -1.4801034   -0.1861991    0.4507130 
C    -0.1573018   -0.1710601   -0.2980564 
H    -1.3049797   -0.2328161    1.5252967 
H    -2.0627356   -1.0607018    0.1542957 
H    -2.0611339    0.7078865    0.2308592 
C     0.6463684    1.0776200    0.0304337 
N     0.6330317   -1.3582188    0.0343539 
H    -0.3655538   -0.0872505   -1.3791390 
H     0.1260545   -2.1951582   -0.2273556 
H     1.5152144   -1.3576672   -0.4626287 
O     0.2364750    2.0551917    0.5959618 
O     1.9132445    0.9901564   -0.4437938 
H     2.3614197    1.8182173   -0.2109406 
13
Energy = -323.6172310
C    -1.3716403    0.1848150   -0.4010561 
C    -0.0363184   -0.4336450    0.0161740 
H    -2.1662764   -0.5511549   -0.2687400 
H    -1.3578532    0.4970793   -1.4441735 
H    -1.5999305    1.0436547    0.2306829 
C     1.1287764    0.5286460   -0.1279389 
N    -0.0911385   -0.8904195    1.3970476 
H     0.2002159   -1.2411639   -0.6980339 
H    -0.5585717   -1.7844556    1.4663729 
H     0.8417023   -0.9725796    1.7829294 
O     2.0170249    0.6648986    0.6731275 
O     1.0991750    1.2000052   -1.3000719 
H     1.8948344    1.7543198   -1.3263200 
13
Energy = -323.6117730
C    -1.3116025    0.3897568    0.0682995 
C    -0.0110361   -0.3665441   -0.2267102 
H    -1.3954670    1.3089727   -0.5135723 
H    -1.3556248    0.6579466    1.1259423 
H    -2.1612250   -0.2517635   -0.1611225 
C     1.1856233    0.5539181    0.0589081 
N     0.0202089   -1.6046269    0.5276522 
H     0.0115263   -0.6247228   -1.2921094 
H     0.8662216   -2.1233851    0.3192030 
H     0.0629969   -1.3927218    1.5197660 
O     1.8818872    0.4686287    1.0289493 
O     1.4154743    1.5279045   -0.8607045 
H     0.7910171    1.4566369   -1.5945015 
13
Energy = -323.6157712
C    -1.1330433    0.0726533   -0.8313896 
C     0.1169914   -0.5413728   -0.1769015 
H    -1.9035744   -0.6937108   -0.9339359 
H    -0.9086588    0.4676342   -1.8242886 
H    -1.5305888    0.8808473   -0.2144238 
C     1.2069324    0.5132116   -0.1305938 
N    -0.0920166   -1.1150808    1.1497200 
H     0.5049981   -1.3263457   -0.8272614 
H    -0.3934899   -0.4015201    1.8034897 
H    -0.8141377   -1.8249381    1.1114332 
O     2.0489535    0.6760192   -0.9730464 
O     1.0937279    1.3173077    0.9530199 
H     1.8039062    1.9752951    0.8941781 
13
Energy = -323.6175447
C    -1.2333178    0.7081974   -0.4310795 
C    -0.1905191   -0.4105991   -0.3846362 
H    -1.0111398    1.4177326   -1.2288554 
H    -1.2556153    1.2499312    0.5168481 
H    -2.2168189    0.2723238   -0.6040215 
C     1.1966627    0.2120465   -0.2600086 
N    -0.5372834   -1.3730788    0.6528396 
H    -0.1853346   -0.9292423   -1.3444914 
H     0.1219631   -2.1424264    0.6728847 
H    -0.5144500   -0.9340374    1.5664523 
O     1.9516837    0.4144676   -1.1751835 
O     1.4984998    0.5504835    1.0183581 
H     2.3756696    0.9642015    1.0008933 
13
Energy = -323.6175584
C    -1.3441876    0.3790272   -0.5085468 
C    -0.0635199   -0.4490955   -0.3832506 
H    -1.5492270    0.9095241    0.4236774 
H    -2.1804650   -0.2868897   -0.7191207 
H    -1.2595100    1.1121059   -1.3113942 
C     1.1201040    0.4970007   -0.2059883 
N    -0.2198515   -1.4551369    0.6589639 
H     0.1198717   -0.9615865   -1.3288053 
H     0.6052144   -2.0391984    0.7299227 
H    -0.3536866   -1.0134117    1.5616771 
O     1.8465715    0.8729111   -1.0888715 
O     1.2652919    0.9087479    1.0782205 
H     2.0133943    1.5260017    1.0935157 
