24
MMFF-Energy = 34.870683521219064
C	0.9756731204364175	2.130558580952389	0.7644996767361829
C	0.008790735337639152	2.7740442777211527	0.002315121179426456
C	-0.3832878647699723	2.262943687910618	-1.229903630066873
C	1.5619688778947334	0.9557184883359945	0.291948991875217
C	1.1770073945767994	0.42009189690143706	-0.9451973235309225
C	0.2017107159610606	1.0860912898408233	-1.702829894527377
O	-0.5360076669855369	3.918617422273568	0.5034975973023511
H	-1.1644322912005454	4.274288139196683	-0.14603449971712357
H	-0.10541291066556505	0.6951291768932084	-2.670982627544201
H	2.323311075136473	0.4682967827975943	0.8965965105336274
H	1.2758041885457936	2.5462736019611185	1.722430678605041
H	-1.1346139069041687	2.762574760963106	-1.8333392465700258
C	1.7916045642307958	-0.8651697783277911	-1.4501831356632404
C	0.8348048736912824	-2.064435871755764	-1.362035457477875
H	2.717180808173373	-1.0798772734526765	-0.8989808785006395
H	2.106775909610329	-0.7096144173650094	-2.4906537274833793
C	1.5072028929148773	-3.315232536638415	-1.9490419852541612
O	2.178438896243976	-3.349450466462093	-2.967384575824873
O	1.2382419535549585	-4.413115602282115	-1.1928554009954413
H	0.6817674550050338	-4.088022769479759	-0.4394774939162222
N	0.4112113843988278	-2.379202376940719	0.04283797688742033
H	-0.07420572081184705	-1.8927792951320759	-1.9502736669666108
H	1.222559358669689	-2.236836192358906	0.6550242841960136
H	-0.22938181840272037	-1.6298205034427322	0.3318804263435841
