24
MMFF-Energy = 34.87068354088937
C	0.39898435344064265	1.2734470741790742	1.5772795913099005
C	0.5590747484646319	2.5125084200419607	0.9698597229376574
C	1.1542884521595624	2.620361551419584	-0.28209730842887853
C	0.8381739517972402	0.12029147164589184	0.9256356493677397
C	1.435698659939829	0.2059953994832419	-0.33976679678917004
C	1.5925194512044596	1.4664918022140523	-0.9358557488045136
O	0.11553407441265427	3.6113336194939136	1.6435746283740804
H	0.32356711809778177	4.402288475818087	1.1197205501811742
H	2.063208579217131	1.5589221846618402	-1.9127903594935691
H	0.713128199315021	-0.8414028132713062	1.4179001659209152
H	-0.06222685840491215	1.2066358063507885	2.558784932770395
H	1.2871791778608355	3.585359558830019	-0.7610309369306227
C	1.8909927108620312	-1.0423908156730342	-1.060097642044867
C	0.9745069751424333	-1.4286867260317015	-2.231550067400243
H	1.9683174532254206	-1.8773621531098232	-0.35055269125845256
H	2.9149473748695223	-0.8766667649553452	-1.4208779506689944
C	1.5353098036084973	-2.6662118870467717	-2.9493381002125227
O	2.7101146954105597	-2.862768078242605	-3.213813137729329
O	0.5382686425434797	-3.5277616425511282	-3.28571296589295
H	-0.2967911449918033	-3.1142608051125817	-2.947155464152119
N	-0.4312621411429352	-1.7349201293707122	-1.8046891389564743
H	0.9255204412270186	-0.6286931929080998	-2.9794811587180305
H	-0.38579470230614454	-2.2388111984525154	-0.9117446719321657
H	-0.8606437869934122	-0.8393559692050966	-1.5418736557421222
